Version 4
SHEET 1 6076 1220
WIRE 768 -320 -128 -320
WIRE 928 -288 224 -288
WIRE 96 -224 64 -224
WIRE 256 -224 160 -224
WIRE -464 -176 -624 -176
WIRE -464 -144 -464 -176
WIRE 560 -112 560 -160
WIRE 640 -112 560 -112
WIRE 768 -112 768 -320
WIRE 768 -112 720 -112
WIRE -624 -64 -624 -176
WIRE 560 -64 560 -112
WIRE -368 -48 -416 -48
WIRE -128 -48 -128 -320
WIRE -80 -48 -128 -48
WIRE 64 -48 64 -224
WIRE 64 -48 0 -48
WIRE 96 -48 64 -48
WIRE 224 -32 224 -288
WIRE 224 -32 160 -32
WIRE 256 -32 256 -224
WIRE 256 -32 224 -32
WIRE 336 -32 256 -32
WIRE 768 -32 768 -112
WIRE 768 -32 592 -32
WIRE 928 -32 768 -32
WIRE -464 -16 -464 -64
WIRE -416 -16 -416 -48
WIRE -416 -16 -464 -16
WIRE 336 -16 336 -32
WIRE 464 -16 416 -16
WIRE 528 -16 464 -16
WIRE -416 0 -416 -16
WIRE -368 0 -416 0
WIRE -464 16 -464 -16
WIRE 3408 16 2768 16
WIRE -624 32 -624 16
WIRE 1600 32 1392 32
WIRE 1824 32 1600 32
WIRE 2288 48 1920 48
WIRE 464 64 464 -16
WIRE 672 64 464 64
WIRE 768 64 768 -32
WIRE 768 64 752 64
WIRE 1824 64 1792 64
WIRE 2848 96 2848 80
WIRE 928 112 336 112
WIRE 2768 112 2768 16
WIRE 2800 112 2768 112
WIRE 3408 112 3056 112
WIRE 1792 160 1792 64
WIRE 1888 160 1792 160
WIRE 2000 160 1968 160
WIRE 2288 176 2288 48
WIRE 2400 176 2288 176
WIRE 2768 176 2768 112
WIRE 2768 176 2656 176
WIRE 1600 208 1600 32
WIRE 2848 208 2848 192
WIRE 3056 208 3056 112
WIRE 3056 208 2848 208
WIRE 3136 208 3056 208
WIRE 3296 208 3216 208
WIRE 3408 208 3296 208
WIRE 624 240 624 208
WIRE 704 240 624 240
WIRE 224 272 224 -32
WIRE 336 272 336 112
WIRE 336 272 288 272
WIRE 544 272 336 272
WIRE 624 272 624 240
WIRE 2400 272 2288 272
WIRE 2768 272 2656 272
WIRE 3056 272 3056 208
WIRE 3056 272 2880 272
WIRE 544 288 544 272
WIRE 592 288 544 288
WIRE 784 304 784 240
WIRE 784 304 656 304
WIRE 960 304 784 304
WIRE 1792 304 1744 304
WIRE 1808 304 1792 304
WIRE 2000 304 1968 304
WIRE 336 320 336 272
WIRE 592 320 576 320
WIRE 2768 352 2768 272
WIRE 2832 352 2768 352
WIRE 576 400 576 320
WIRE 1792 416 1792 304
WIRE 1824 416 1792 416
WIRE 2112 432 1920 432
WIRE 2288 432 2288 272
WIRE 2288 432 2192 432
WIRE 1600 448 1600 288
WIRE 1824 448 1600 448
WIRE 2768 464 2768 352
WIRE 3408 464 2768 464
WIRE 2384 592 2368 592
WIRE 2608 592 2448 592
WIRE 1952 752 1824 752
WIRE 2128 752 2016 752
WIRE 2224 752 2128 752
WIRE 2368 752 2368 592
WIRE 2368 752 2304 752
WIRE 2464 752 2368 752
WIRE 2608 768 2608 592
WIRE 2608 768 2528 768
WIRE 2704 768 2608 768
WIRE 2464 784 2416 784
WIRE 2416 816 2416 784
WIRE 2128 832 2128 752
WIRE 2128 928 2128 896
FLAG 128 0 0
FLAG 560 0 0
FLAG 624 336 0
FLAG 128 -64 VDD
IOPIN 128 -64 In
FLAG 560 -160 VDD
IOPIN 560 -160 In
FLAG 624 208 VDD
IOPIN 624 208 In
FLAG 96 -16 VCM
IOPIN 96 -16 In
FLAG 528 -48 VCM
IOPIN 528 -48 In
FLAG -464 96 0
FLAG -624 32 0
FLAG -624 -176 VDD
IOPIN -624 -176 Out
FLAG -368 -48 VCM
IOPIN -368 -48 Out
FLAG -368 0 VBIAS
IOPIN -368 0 Out
FLAG 576 400 VCTRL
IOPIN 576 400 In
FLAG 336 400 VBIAS
IOPIN 336 400 In
FLAG 960 304 PWM
IOPIN 960 304 Out
FLAG 928 112 VRAMP_B
IOPIN 928 112 Out
FLAG 928 -32 VSQR
IOPIN 928 -32 Out
FLAG 928 -288 VRAMP
IOPIN 928 -288 Out
FLAG 1872 96 0
FLAG 1872 480 0
FLAG 1872 -16 VDD
IOPIN 1872 -16 In
FLAG 1872 368 VDD
IOPIN 1872 368 In
FLAG 1920 144 0
FLAG 2000 160 Gate_n
IOPIN 2000 160 In
FLAG 2000 304 Gate_p
IOPIN 2000 304 In
FLAG 1920 192 VDD
IOPIN 1920 192 In
FLAG 1728 160 0
FLAG 1728 304 0
FLAG 1584 256 0
FLAG 1632 256 VDD
IOPIN 1632 256 In
FLAG 2464 96 VDD
IOPIN 2464 96 In
FLAG 2592 96 VDD
IOPIN 2592 96 In
FLAG 2464 352 0
FLAG 2592 352 0
FLAG 2880 368 0
FLAG 3296 272 0
FLAG 3408 208 Vout
IOPIN 3408 208 Out
FLAG 3408 112 VSW
IOPIN 3408 112 Out
FLAG 3408 16 Gate_p
IOPIN 3408 16 Out
FLAG 3408 464 Gate_n
IOPIN 3408 464 Out
FLAG 1392 32 PWM
IOPIN 1392 32 In
FLAG 2160 400 VDD
IOPIN 2160 400 In
FLAG 2160 448 0
FLAG 1840 336 VDD
IOPIN 1840 336 In
FLAG 1840 288 0
FLAG 1920 336 VDD
IOPIN 1920 336 In
FLAG 1920 288 0
FLAG 2848 80 Vdd
IOPIN 2848 80 In
FLAG 3824 352 VREF
IOPIN 3824 352 Out
FLAG 3824 432 0
FLAG 1824 752 Vout
IOPIN 1824 752 In
FLAG 2128 928 0
FLAG 2416 816 VREF
IOPIN 2416 816 In
FLAG 2496 736 VDD
IOPIN 2496 736 In
FLAG 2496 800 0
FLAG -496 416 0
FLAG -496 336 VCTRL
IOPIN -496 336 Out
FLAG 2704 768 VCTRL
IOPIN 2704 768 Out
SYMBOL OpAmps\\UniversalOpAmp 128 -32 R0
SYMATTR InstName U1
SYMBOL Comparators\\LTC6752 560 -96 R0
SYMATTR InstName U2
SYMBOL Comparators\\LTC6752 624 240 R0
SYMATTR InstName U3
SYMBOL res 16 -64 R90
WINDOW 0 0 56 VBottom 2
WINDOW 3 32 56 VTop 2
SYMATTR InstName R1
SYMATTR Value 125K
SYMBOL cap 160 -240 R90
WINDOW 0 0 32 VBottom 2
WINDOW 3 32 32 VTop 2
SYMATTR InstName C1
SYMATTR Value 0.1n
SYMBOL res 432 -32 R90
WINDOW 0 0 56 VBottom 2
WINDOW 3 32 56 VTop 2
SYMATTR InstName R2
SYMATTR Value 2K
SYMBOL res 768 48 R90
WINDOW 0 0 56 VBottom 2
WINDOW 3 32 56 VTop 2
SYMATTR InstName R3
SYMATTR Value 10K
SYMBOL res 736 -128 R90
WINDOW 0 0 56 VBottom 2
WINDOW 3 32 56 VTop 2
SYMATTR InstName RPULL1
SYMATTR Value 7K
SYMBOL voltage -624 -80 R0
WINDOW 123 0 0 Left 0
WINDOW 39 0 0 Left 0
SYMATTR InstName V1
SYMATTR Value 5V
SYMBOL res -480 -160 R0
SYMATTR InstName R4
SYMATTR Value 10K
SYMBOL res -480 0 R0
SYMATTR InstName R5
SYMATTR Value 10K
SYMBOL cap 288 256 R90
WINDOW 0 0 32 VBottom 2
WINDOW 3 32 32 VTop 2
SYMATTR InstName CBIAS1
SYMATTR Value 0.1m
SYMBOL res 320 304 R0
SYMATTR InstName RBIAS1
SYMATTR Value 10k
SYMBOL res 800 224 R90
WINDOW 0 0 56 VBottom 2
WINDOW 3 32 56 VTop 2
SYMATTR InstName RPULL2
SYMATTR Value 7K
SYMBOL gates\\NAND 1840 48 R0
SYMATTR InstName X1
SYMBOL gates\\NAND 1840 432 R0
SYMATTR InstName X2
SYMBOL gates\\NOT 1936 160 R180
SYMATTR InstName X3
SYMBOL cap 1792 288 R90
WINDOW 0 0 32 VBottom 2
WINDOW 3 32 32 VTop 2
SYMATTR InstName Cn1
SYMATTR Value 1n
SYMBOL cap 1792 144 R90
WINDOW 0 0 32 VBottom 2
WINDOW 3 32 32 VTop 2
SYMATTR InstName Cp1
SYMATTR Value 1n
SYMBOL gates\\NOT 1600 240 R90
SYMATTR InstName X4
SYMBOL PowerProducts\\LTC1693-1 2528 224 R0
SYMATTR InstName U4
SYMBOL nmos 2832 272 R0
SYMATTR InstName M_n1
SYMATTR Value Si7336ADP
SYMBOL ind 3120 224 R270
WINDOW 0 32 56 VTop 2
WINDOW 3 5 56 VBottom 2
SYMATTR InstName L1
SYMATTR Value 100µ
SYMBOL cap 3312 272 R180
WINDOW 0 24 56 Left 2
WINDOW 3 24 8 Left 2
SYMATTR InstName C2
SYMATTR Value 47µ
SYMBOL gates\\NOT 2144 432 R0
SYMATTR InstName X5
SYMBOL gates\\NOT 1856 304 R180
SYMATTR InstName X6
SYMBOL gates\\NOT 1936 304 R180
SYMATTR InstName X7
SYMBOL pmos 2800 192 M180
SYMATTR InstName M_p1
SYMATTR Value AO6407
SYMBOL voltage 3824 336 R0
SYMATTR InstName V4
SYMATTR Value 2.5
SYMBOL LED 1952 768 R270
WINDOW 0 72 32 VTop 2
WINDOW 3 0 32 VBottom 2
SYMATTR InstName D1
SYMBOL res2 2144 896 R180
WINDOW 0 36 56 Left 2
WINDOW 3 36 16 Left 2
SYMATTR InstName R9
SYMATTR Value 5
SYMBOL OpAmps\\UniversalOpAmp 2496 768 R0
SYMATTR InstName U6
SYMBOL res 2320 736 R90
WINDOW 0 0 56 VBottom 2
WINDOW 3 32 56 VTop 2
SYMATTR InstName R10
SYMATTR Value 10k
SYMBOL cap 2448 576 R90
WINDOW 0 0 32 VBottom 2
WINDOW 3 32 32 VTop 2
SYMATTR InstName C6
SYMATTR Value 47µ
SYMBOL voltage -496 320 R0
WINDOW 123 0 0 Left 0
WINDOW 39 0 0 Left 0
SYMATTR InstName V2
SYMATTR Value 2.5
TEXT -736 768 Left 2 !.tran 5ms
